<?xml version="1.0" encoding="UTF-8"?>

<!-- generated on 2024-10-03 22:08:12 by Eclipse SUMO netedit Version 1.19.0
<configuration xmlns:xsi="http://www.w3.org/2001/XMLSchema-instance" xsi:noNamespaceSchemaLocation="http://sumo.dlr.de/xsd/neteditConfiguration.xsd">

    <input>
        <sumo-net-file value="C:\CI\CausalInferenceProject\Simulation\cfg_files_Junction\Junction_3.net.xml"/>
    </input>

    <output>
        <output-file value="C:\CI\CausalInferenceProject\Simulation\cfg_files_Junction\Junction_3.net.xml"/>
    </output>

    <processing>
        <geometry.min-radius.fix.railways value="false"/>
        <geometry.max-grade.fix value="false"/>
        <offset.disable-normalization value="true"/>
        <lefthand value="0"/>
    </processing>

    <junctions>
        <no-turnarounds value="true"/>
        <junctions.corner-detail value="5"/>
        <junctions.limit-turn-speed value="5.50"/>
        <rectangular-lane-cut value="0"/>
    </junctions>

    <pedestrian>
        <walkingareas value="0"/>
    </pedestrian>

</configuration>
-->

<net version="1.16" junctionCornerDetail="5" limitTurnSpeed="5.50" xmlns:xsi="http://www.w3.org/2001/XMLSchema-instance" xsi:noNamespaceSchemaLocation="http://sumo.dlr.de/xsd/net_file.xsd">

    <location netOffset="0.00,0.00" convBoundary="-100.00,-100.00,100.00,100.00" origBoundary="-10000000000.00,-10000000000.00,10000000000.00,10000000000.00" projParameter="!"/>

    <edge id=":C_0" function="internal">
        <lane id=":C_0_0" index="0" speed="6.51" length="9.03" shape="-1.60,7.20 -1.95,4.75 -3.00,3.00 -4.75,1.95 -7.20,1.60"/>
    </edge>
    <edge id=":C_1" function="internal">
        <lane id=":C_1_0" index="0" speed="13.89" length="14.40" shape="-1.60,7.20 -1.60,-7.20"/>
    </edge>
    <edge id=":C_2" function="internal">
        <lane id=":C_2_0" index="0" speed="8.00" length="4.07" shape="-1.60,7.20 -1.05,3.35 -0.96,3.20"/>
    </edge>
    <edge id=":C_12" function="internal">
        <lane id=":C_12_0" index="0" speed="8.00" length="10.13" shape="-0.96,3.20 0.60,0.60 3.35,-1.05 7.20,-1.60"/>
    </edge>
    <edge id=":C_3" function="internal">
        <lane id=":C_3_0" index="0" speed="6.51" length="9.03" shape="7.20,1.60 4.75,1.95 3.00,3.00 1.95,4.75 1.60,7.20"/>
    </edge>
    <edge id=":C_4" function="internal">
        <lane id=":C_4_0" index="0" speed="13.89" length="14.40" shape="7.20,1.60 -7.20,1.60"/>
    </edge>
    <edge id=":C_5" function="internal">
        <lane id=":C_5_0" index="0" speed="8.00" length="4.07" shape="7.20,1.60 3.35,1.05 3.20,0.96"/>
    </edge>
    <edge id=":C_13" function="internal">
        <lane id=":C_13_0" index="0" speed="8.00" length="10.13" shape="3.20,0.96 0.60,-0.60 -1.05,-3.35 -1.60,-7.20"/>
    </edge>
    <edge id=":C_6" function="internal">
        <lane id=":C_6_0" index="0" speed="6.51" length="9.03" shape="1.60,-7.20 1.95,-4.75 3.00,-3.00 4.75,-1.95 7.20,-1.60"/>
    </edge>
    <edge id=":C_7" function="internal">
        <lane id=":C_7_0" index="0" speed="13.89" length="14.40" shape="1.60,-7.20 1.60,7.20"/>
    </edge>
    <edge id=":C_8" function="internal">
        <lane id=":C_8_0" index="0" speed="8.00" length="4.07" shape="1.60,-7.20 1.05,-3.35 0.96,-3.20"/>
    </edge>
    <edge id=":C_14" function="internal">
        <lane id=":C_14_0" index="0" speed="8.00" length="10.13" shape="0.96,-3.20 -0.60,-0.60 -3.35,1.05 -7.20,1.60"/>
    </edge>
    <edge id=":C_9" function="internal">
        <lane id=":C_9_0" index="0" speed="6.51" length="9.03" shape="-7.20,-1.60 -4.75,-1.95 -3.00,-3.00 -1.95,-4.75 -1.60,-7.20"/>
    </edge>
    <edge id=":C_10" function="internal">
        <lane id=":C_10_0" index="0" speed="13.89" length="14.40" shape="-7.20,-1.60 7.20,-1.60"/>
    </edge>
    <edge id=":C_11" function="internal">
        <lane id=":C_11_0" index="0" speed="8.00" length="4.07" shape="-7.20,-1.60 -3.35,-1.05 -3.20,-0.96"/>
    </edge>
    <edge id=":C_15" function="internal">
        <lane id=":C_15_0" index="0" speed="8.00" length="10.13" shape="-3.20,-0.96 -0.60,0.60 1.05,3.35 1.60,7.20"/>
    </edge>

    <edge id="C_E" from="C" to="E" priority="-1">
        <lane id="C_E_0" index="0" speed="13.89" length="92.80" shape="7.20,-1.60 100.00,-1.60"/>
    </edge>
    <edge id="C_N" from="C" to="N" priority="-1">
        <lane id="C_N_0" index="0" speed="13.89" length="92.80" shape="1.60,7.20 1.60,100.00"/>
    </edge>
    <edge id="C_S" from="C" to="S" priority="-1">
        <lane id="C_S_0" index="0" speed="13.89" length="92.80" shape="-1.60,-7.20 -1.60,-100.00"/>
    </edge>
    <edge id="C_W" from="C" to="W" priority="-1">
        <lane id="C_W_0" index="0" speed="13.89" length="92.80" shape="-7.20,1.60 -100.00,1.60"/>
    </edge>
    <edge id="E_C" from="E" to="C" priority="-1">
        <lane id="E_C_0" index="0" speed="13.89" length="92.80" shape="100.00,1.60 7.20,1.60"/>
    </edge>
    <edge id="N_C" from="N" to="C" priority="-1">
        <lane id="N_C_0" index="0" speed="13.89" length="92.80" shape="-1.60,100.00 -1.60,7.20"/>
    </edge>
    <edge id="S_C" from="S" to="C" priority="-1">
        <lane id="S_C_0" index="0" speed="13.89" length="92.80" shape="1.60,-100.00 1.60,-7.20"/>
    </edge>
    <edge id="W_C" from="W" to="C" priority="-1">
        <lane id="W_C_0" index="0" speed="13.89" length="92.80" shape="-100.00,-1.60 -7.20,-1.60"/>
    </edge>

    <tlLogic id="Actuated" type="actuated" programID="0" offset="0">
        <phase duration="42" state="GGgrrrGGgrrr" minDur="5" maxDur="60"/>
        <phase duration="3"  state="yyyrrryyyrrr"/>
        <phase duration="42" state="rrrGGgrrrGGg" minDur="5" maxDur="60"/>
        <phase duration="3"  state="rrryyyrrryyy"/>
    </tlLogic>

    <junction id="C" type="traffic_light" x="0.00" y="0.00" incLanes="N_C_0 E_C_0 S_C_0 W_C_0" intLanes=":C_0_0 :C_1_0 :C_12_0 :C_3_0 :C_4_0 :C_13_0 :C_6_0 :C_7_0 :C_14_0 :C_9_0 :C_10_0 :C_15_0" shape="-3.20,7.20 3.20,7.20 3.64,4.98 4.20,4.20 4.98,3.64 5.98,3.31 7.20,3.20 7.20,-3.20 4.98,-3.64 4.20,-4.20 3.64,-4.98 3.31,-5.98 3.20,-7.20 -3.20,-7.20 -3.64,-4.98 -4.20,-4.20 -4.98,-3.64 -5.98,-3.31 -7.20,-3.20 -7.20,3.20 -4.98,3.64 -4.20,4.20 -3.64,4.98 -3.31,5.98">
        <request index="0"  response="000000000000" foes="000100010000" cont="0"/>
        <request index="1"  response="100000100000" foes="111100110000" cont="0"/>
        <request index="2"  response="100111100000" foes="110111110000" cont="1"/>
        <request index="3"  response="000010000000" foes="100010000000" cont="0"/>
        <request index="4"  response="000110000111" foes="100110000111" cont="0"/>
        <request index="5"  response="111110000110" foes="111110000110" cont="1"/>
        <request index="6"  response="000000000000" foes="010000000100" cont="0"/>
        <request index="7"  response="100000100000" foes="110000111100" cont="0"/>
        <request index="8"  response="100000100011" foes="110000110111" cont="1"/>
        <request index="9"  response="000000000010" foes="000000100010" cont="0"/>
        <request index="10" response="000111000110" foes="000111100110" cont="0"/>
        <request index="11" response="000110011110" foes="000110111110" cont="1"/>
    </junction>
    <junction id="E" type="dead_end" x="100.00" y="0.00" incLanes="C_E_0" intLanes="" shape="100.00,0.00 100.00,-3.20 100.00,0.00"/>
    <junction id="N" type="dead_end" x="0.00" y="100.00" incLanes="C_N_0" intLanes="" shape="0.00,100.00 3.20,100.00 0.00,100.00"/>
    <junction id="S" type="dead_end" x="0.00" y="-100.00" incLanes="C_S_0" intLanes="" shape="0.00,-100.00 -3.20,-100.00 0.00,-100.00"/>
    <junction id="W" type="dead_end" x="-100.00" y="0.00" incLanes="C_W_0" intLanes="" shape="-100.00,0.00 -100.00,3.20 -100.00,0.00"/>

    <junction id=":C_12_0" type="internal" x="-0.96" y="3.20" incLanes=":C_2_0 S_C_0" intLanes=":C_4_0 :C_5_0 :C_6_0 :C_7_0 :C_10_0 :C_11_0"/>
    <junction id=":C_13_0" type="internal" x="3.20" y="0.96" incLanes=":C_5_0 W_C_0" intLanes=":C_1_0 :C_2_0 :C_7_0 :C_8_0 :C_9_0 :C_10_0"/>
    <junction id=":C_14_0" type="internal" x="0.96" y="-3.20" incLanes=":C_8_0 N_C_0" intLanes=":C_0_0 :C_1_0 :C_4_0 :C_5_0 :C_10_0 :C_11_0"/>
    <junction id=":C_15_0" type="internal" x="-3.20" y="-0.96" incLanes=":C_11_0 E_C_0" intLanes=":C_1_0 :C_2_0 :C_3_0 :C_4_0 :C_7_0 :C_8_0"/>

    <connection from="E_C" to="C_N" fromLane="0" toLane="0" via=":C_3_0" tl="Actuated" linkIndex="3" dir="r" state="o"/>
    <connection from="E_C" to="C_W" fromLane="0" toLane="0" via=":C_4_0" tl="Actuated" linkIndex="4" dir="s" state="o"/>
    <connection from="E_C" to="C_S" fromLane="0" toLane="0" via=":C_5_0" tl="Actuated" linkIndex="5" dir="l" state="o"/>
    <connection from="N_C" to="C_W" fromLane="0" toLane="0" via=":C_0_0" tl="Actuated" linkIndex="0" dir="r" state="O"/>
    <connection from="N_C" to="C_S" fromLane="0" toLane="0" via=":C_1_0" tl="Actuated" linkIndex="1" dir="s" state="O"/>
    <connection from="N_C" to="C_E" fromLane="0" toLane="0" via=":C_2_0" tl="Actuated" linkIndex="2" dir="l" state="o"/>
    <connection from="S_C" to="C_E" fromLane="0" toLane="0" via=":C_6_0" tl="Actuated" linkIndex="6" dir="r" state="O"/>
    <connection from="S_C" to="C_N" fromLane="0" toLane="0" via=":C_7_0" tl="Actuated" linkIndex="7" dir="s" state="O"/>
    <connection from="S_C" to="C_W" fromLane="0" toLane="0" via=":C_8_0" tl="Actuated" linkIndex="8" dir="l" state="o"/>
    <connection from="W_C" to="C_S" fromLane="0" toLane="0" via=":C_9_0" tl="Actuated" linkIndex="9" dir="r" state="o"/>
    <connection from="W_C" to="C_E" fromLane="0" toLane="0" via=":C_10_0" tl="Actuated" linkIndex="10" dir="s" state="o"/>
    <connection from="W_C" to="C_N" fromLane="0" toLane="0" via=":C_11_0" tl="Actuated" linkIndex="11" dir="l" state="o"/>

    <connection from=":C_0" to="C_W" fromLane="0" toLane="0" dir="r" state="M"/>
    <connection from=":C_1" to="C_S" fromLane="0" toLane="0" dir="s" state="M"/>
    <connection from=":C_2" to="C_E" fromLane="0" toLane="0" via=":C_12_0" dir="l" state="m"/>
    <connection from=":C_12" to="C_E" fromLane="0" toLane="0" dir="l" state="M"/>
    <connection from=":C_3" to="C_N" fromLane="0" toLane="0" dir="r" state="M"/>
    <connection from=":C_4" to="C_W" fromLane="0" toLane="0" dir="s" state="M"/>
    <connection from=":C_5" to="C_S" fromLane="0" toLane="0" via=":C_13_0" dir="l" state="m"/>
    <connection from=":C_13" to="C_S" fromLane="0" toLane="0" dir="l" state="M"/>
    <connection from=":C_6" to="C_E" fromLane="0" toLane="0" dir="r" state="M"/>
    <connection from=":C_7" to="C_N" fromLane="0" toLane="0" dir="s" state="M"/>
    <connection from=":C_8" to="C_W" fromLane="0" toLane="0" via=":C_14_0" dir="l" state="m"/>
    <connection from=":C_14" to="C_W" fromLane="0" toLane="0" dir="l" state="M"/>
    <connection from=":C_9" to="C_S" fromLane="0" toLane="0" dir="r" state="M"/>
    <connection from=":C_10" to="C_E" fromLane="0" toLane="0" dir="s" state="M"/>
    <connection from=":C_11" to="C_N" fromLane="0" toLane="0" via=":C_15_0" dir="l" state="m"/>
    <connection from=":C_15" to="C_N" fromLane="0" toLane="0" dir="l" state="M"/>

</net>
