<?xml version="1.0" encoding="UTF-8"?>

<!-- generated on 2024-08-20 14:02:06 by Eclipse SUMO netedit Version 1.19.0
-->

<routes xmlns:xsi="http://www.w3.org/2001/XMLSchema-instance" xsi:noNamespaceSchemaLocation="http://sumo.dlr.de/xsd/routes_file.xsd">

</routes>
