<?xml version="1.0" encoding="UTF-8"?>

<!-- generated on 2024-08-20 14:02:06 by Eclipse SUMO netedit Version 1.19.0
-->

<routes xmlns:xsi="http://www.w3.org/2001/XMLSchema-instance" xsi:noNamespaceSchemaLocation="http://sumo.dlr.de/xsd/routes_file.xsd">
    <!-- Routes -->
    <route id="r_0" edges="E0 E1"/>
    <route id="r_1" edges="E0 E3"/>
    <route id="r_2" edges="-E1 -E0"/>
    <route id="r_3" edges="-E1 E2"/>
    <!-- Vehicles, persons and containers (sorted by depart) -->
    <flow id="f_0" begin="0.00" route="r_0" end="3600.00" vehsPerHour="100"/>
    <flow id="f_1" begin="0.00" route="r_1" end="3600.00" vehsPerHour="100"/>
    <flow id="f_4" begin="0.00" route="r_3" end="3600.00" vehsPerHour="100"/>
    <flow id="f_5" begin="0.00" route="r_2" end="3600.00" vehsPerHour="100"/>
</routes>
